rede_NW19.dss
clear
new circuit.NW19 bus1=BAR_S01__613 basekv=49.0 pu=1.0 phases=3
new load.UC_9041_BSBRJ003_ATV bus1=BAR_S01__613.1.2.3 phases=3 conn=wye kv=49.0 kw=863.000 pf=0.92
new load.UC_9041_BSBRJ003_ATV bus1=BAR_S01__613.1.2.3 phases=3 conn=wye kv=49.0 kw=150.000 pf=0.92
new load.UC_9041_BSBRJ003_ATV bus1=BAR_S01__613.1.2.3 phases=3 conn=wye kv=49.0 kw=171.000 pf=0.92
new load.UC_9041_BSBRJ003_ATV bus1=BAR_S01__613.1.2.3 phases=3 conn=wye kv=49.0 kw=115.000 pf=0.92
new load.UC_9041_BSBRJ003_ATV bus1=BAR_S01__613.1.2.3 phases=3 conn=wye kv=49.0 kw=80.000 pf=0.92
new load.UC_9041_BSBRJ003_ATV bus1=BAR_S01__613.1.2.3 phases=3 conn=wye kv=49.0 kw=200.000 pf=0.92
new load.UC_9041_BSBRJ003_ATV bus1=BAR_S01__613.1.2.3 phases=3 conn=wye kv=49.0 kw=125.000 pf=0.92
new load.UC_9041_BSBRJ003_ATV bus1=BAR_S01__613.1.2.3 phases=3 conn=wye kv=49.0 kw=30.000 pf=0.92
new load.UC_9041_BSBRJ003_ATV bus1=BAR_S01__613.1.2.3 phases=3 conn=wye kv=49.0 kw=170.000 pf=0.92
new load.UC_9041_BSBRJ003_ATV bus1=BAR_S01__613.1.2.3 phases=3 conn=wye kv=49.0 kw=360.000 pf=0.92
new load.UC_9041_BSBRJ003_ATV bus1=BAR_S01__613.1.2.3 phases=3 conn=wye kv=49.0 kw=160.000 pf=0.92
new load.UC_9041_BSBRJ003_ATV bus1=BAR_S01__613.1.2.3 phases=3 conn=wye kv=49.0 kw=530.000 pf=0.92
new load.UC_9041_BSBRJ003_ATV bus1=BAR_S01__613.1.2.3 phases=3 conn=wye kv=49.0 kw=280.000 pf=0.92
new load.UC_9041_BSBRJ003_ATV bus1=BAR_S01__613.1.2.3 phases=3 conn=wye kv=49.0 kw=1980.000 pf=0.92
new load.UC_9041_BSBRJ003_ATV bus1=BAR_S01__613.1.2.3 phases=3 conn=wye kv=49.0 kw=126.000 pf=0.92
new load.UC_9041_BSBRJ003_ATV bus1=BAR_S01__613.1.2.3 phases=3 conn=wye kv=49.0 kw=200.000 pf=0.92
new load.UC_9041_BSBRJ003_ATV bus1=BAR_S01__613.1.2.3 phases=3 conn=wye kv=49.0 kw=200.000 pf=0.92
new load.UC_9041_BSBRJ003_ATV bus1=BAR_S01__613.1.2.3 phases=3 conn=wye kv=49.0 kw=150.000 pf=0.92
new load.UC_9041_BSBRJ003_ATV bus1=BAR_S01__613.1.2.3 phases=3 conn=wye kv=49.0 kw=130.000 pf=0.92
new load.UC_9041_BSBRJ003_ATV bus1=BAR_S01__613.1.2.3 phases=3 conn=wye kv=49.0 kw=1200.000 pf=0.92
new load.UC_9041_BSBRJ003_ATV bus1=BAR_S01__613.1.2.3 phases=3 conn=wye kv=49.0 kw=500.000 pf=0.92
new load.UC_9041_BSBRJ003_ATV bus1=BAR_S01__613.1.2.3 phases=3 conn=wye kv=49.0 kw=500.000 pf=0.92
new load.UC_9041_BSBRJ003_ATV bus1=BAR_S01__613.1.2.3 phases=3 conn=wye kv=49.0 kw=320.000 pf=0.92
new load.UC_9041_BSBRJ003_ATV bus1=BAR_S01__613.1.2.3 phases=3 conn=wye kv=49.0 kw=360.000 pf=0.92
new load.UC_9041_BSBRJ003_ATV bus1=BAR_S01__613.1.2.3 phases=3 conn=wye kv=49.0 kw=170.000 pf=0.92
new load.UC_9041_BSBRJ003_ATV bus1=BAR_S01__613.1.2.3 phases=3 conn=wye kv=49.0 kw=700.000 pf=0.92
new load.UC_9041_BSBRJ003_ATV bus1=BAR_S01__613.1.2.3 phases=3 conn=wye kv=49.0 kw=150.000 pf=0.92
new load.UC_9041_BSBRJ003_ATV bus1=BAR_S01__613.1.2.3 phases=3 conn=wye kv=49.0 kw=30.000 pf=0.92
new load.UC_9041_BSBRJ003_ATV bus1=BAR_S01__613.1.2.3 phases=3 conn=wye kv=49.0 kw=1980.000 pf=0.92
new load.UC_9041_BSBRJ003_ATV bus1=BAR_S01__613.1.2.3 phases=3 conn=wye kv=49.0 kw=265.900 pf=0.92
new load.UC_9049_BSBRJ015_ATV bus1=BAR_S01__613.1.2.3 phases=3 conn=wye kv=49.0 kw=0.300 pf=0.92
new load.UC_9041_BSBRJ003_ATV bus1=BAR_S01__613.1.2.3 phases=3 conn=wye kv=49.0 kw=300.000 pf=0.92
new load.UC_9041_BSBRJ003_ATV bus1=BAR_S01__613.1.2.3 phases=3 conn=wye kv=49.0 kw=220.000 pf=0.92
new load.UC_9041_BSBRJ003_ATV bus1=BAR_S01__613.1.2.3 phases=3 conn=wye kv=49.0 kw=375.000 pf=0.92
new load.UC_9041_BSBRJ003_ATV bus1=BAR_S01__613.1.2.3 phases=3 conn=wye kv=49.0 kw=150.000 pf=0.92
new load.UC_9041_BSBRJ003_ATV bus1=BAR_S01__613.1.2.3 phases=3 conn=wye kv=49.0 kw=100.000 pf=0.92
new load.UC_9041_BSBRJ003_ATV bus1=BAR_S01__613.1.2.3 phases=3 conn=wye kv=49.0 kw=875.000 pf=0.92
new load.UC_9308_BSB140 bus1=BAR_S01__613.1.2.3 phases=3 conn=wye kv=49.0 kw=30.000 pf=0.92
new load.UC_9041_BSBRJ003_ATV bus1=BAR_S01__613.1.2.3 phases=3 conn=wye kv=49.0 kw=30.000 pf=0.92
new load.UC_9041_BSBRJ003_ATV bus1=BAR_S01__613.1.2.3 phases=3 conn=wye kv=49.0 kw=30.000 pf=0.92
new load.UC_9041_BSBRJ003_ATV bus1=BAR_S01__613.1.2.3 phases=3 conn=wye kv=49.0 kw=150.000 pf=0.92
new load.UC_9041_BSBRJ003_ATV bus1=BAR_S01__613.1.2.3 phases=3 conn=wye kv=49.0 kw=100.000 pf=0.92
new load.UC_9041_BSBRJ003_ATV bus1=BAR_S01__613.1.2.3 phases=3 conn=wye kv=49.0 kw=50.000 pf=0.92
new load.UC_9041_BSBRJ003_ATV bus1=BAR_S01__613.1.2.3 phases=3 conn=wye kv=49.0 kw=30.000 pf=0.92
new load.UC_9041_BSBRJ003_ATV bus1=BAR_S01__613.1.2.3 phases=3 conn=wye kv=49.0 kw=150.000 pf=0.92
new load.UC_9041_BSBRJ003_ATV bus1=BAR_S01__613.1.2.3 phases=3 conn=wye kv=49.0 kw=80.000 pf=0.92
new load.UC_9041_BSBRJ003_ATV bus1=BAR_S01__613.1.2.3 phases=3 conn=wye kv=49.0 kw=30.000 pf=0.92
new load.UC_9041_BSBRJ003_ATV bus1=BAR_S01__613.1.2.3 phases=3 conn=wye kv=49.0 kw=80.000 pf=0.92
new load.UC_9041_BSBRJ003_ATV bus1=BAR_S01__613.1.2.3 phases=3 conn=wye kv=49.0 kw=223.000 pf=0.92
new load.UC_9041_BSBRJ003_ATV bus1=BAR_S01__613.1.2.3 phases=3 conn=wye kv=49.0 kw=724.000 pf=0.92
new load.UC_9041_BSBRJ003_ATV bus1=BAR_S01__613.1.2.3 phases=3 conn=wye kv=49.0 kw=30.000 pf=0.92
new load.UC_9041_BSBRJ003_ATV bus1=BAR_S01__613.1.2.3 phases=3 conn=wye kv=49.0 kw=45.000 pf=0.92
new load.UC_9041_BSBRJ003_ATV bus1=BAR_S01__613.1.2.3 phases=3 conn=wye kv=49.0 kw=230.000 pf=0.92
new load.UC_9041_BSBRJ003_ATV bus1=BAR_S01__613.1.2.3 phases=3 conn=wye kv=49.0 kw=200.000 pf=0.92
new load.UC_9041_BSBRJ003_ATV bus1=BAR_S01__613.1.2.3 phases=3 conn=wye kv=49.0 kw=80.000 pf=0.92
new load.UC_9041_BSBRJ003_ATV bus1=BAR_S01__613.1.2.3 phases=3 conn=wye kv=49.0 kw=150.000 pf=0.92
new load.UC_9041_BSBRJ003_ATV bus1=BAR_S01__613.1.2.3 phases=3 conn=wye kv=49.0 kw=150.000 pf=0.92
new load.UC_9368_BSB136 bus1=BAR_S01__613.1.2.3 phases=3 conn=wye kv=49.0 kw=30.000 pf=0.92
new load.UC_9041_BSBRJ003_ATV bus1=BAR_S01__613.1.2.3 phases=3 conn=wye kv=49.0 kw=0.100 pf=0.92
new load.UC_9041_BSBRJ003_ATV bus1=BAR_S01__613.1.2.3 phases=3 conn=wye kv=49.0 kw=350.000 pf=0.92
new load.UC_9041_BSBRJ003_ATV bus1=BAR_S01__613.1.2.3 phases=3 conn=wye kv=49.0 kw=90.000 pf=0.92
new load.UC_9041_BSBRJ003_ATV bus1=BAR_S01__613.1.2.3 phases=3 conn=wye kv=49.0 kw=100.000 pf=0.92
new load.UC_9041_BSBRJ003_ATV bus1=BAR_S01__613.1.2.3 phases=3 conn=wye kv=49.0 kw=50.000 pf=0.92
new load.UC_9041_BSBRJ003_ATV bus1=BAR_S01__613.1.2.3 phases=3 conn=wye kv=49.0 kw=30.000 pf=0.92
new load.UC_9041_BSBRJ003_ATV bus1=BAR_S01__613.1.2.3 phases=3 conn=wye kv=49.0 kw=70.000 pf=0.92
new load.UC_9041_BSBRJ003_ATV bus1=BAR_S01__613.1.2.3 phases=3 conn=wye kv=49.0 kw=130.000 pf=0.92
new load.UC_9041_BSBRJ003_ATV bus1=BAR_S01__613.1.2.3 phases=3 conn=wye kv=49.0 kw=30.000 pf=0.92
new load.UC_9041_BSBRJ003_ATV bus1=BAR_S01__613.1.2.3 phases=3 conn=wye kv=49.0 kw=224.000 pf=0.92
new load.UC_9041_BSBRJ003_ATV bus1=BAR_S01__613.1.2.3 phases=3 conn=wye kv=49.0 kw=750.000 pf=0.92
new load.UC_9041_BSBRJ003_ATV bus1=BAR_S01__613.1.2.3 phases=3 conn=wye kv=49.0 kw=30.000 pf=0.92
new load.UC_9041_BSBRJ003_ATV bus1=BAR_S01__613.1.2.3 phases=3 conn=wye kv=49.0 kw=30.000 pf=0.92
new load.UC_9041_BSBRJ003_ATV bus1=BAR_S01__613.1.2.3 phases=3 conn=wye kv=49.0 kw=100.000 pf=0.92
new load.UC_9041_BSBRJ003_ATV bus1=BAR_S01__613.1.2.3 phases=3 conn=wye kv=49.0 kw=863.000 pf=0.92
new load.UC_9041_BSBRJ003_ATV bus1=BAR_S01__613.1.2.3 phases=3 conn=wye kv=49.0 kw=450.000 pf=0.92
new load.UC_9041_BSBRJ003_ATV bus1=BAR_S01__613.1.2.3 phases=3 conn=wye kv=49.0 kw=300.000 pf=0.92
new load.UC_9041_BSBRJ003_ATV bus1=BAR_S01__613.1.2.3 phases=3 conn=wye kv=49.0 kw=375.000 pf=0.92
new load.UC_9041_BSBRJ003_ATV bus1=BAR_S01__613.1.2.3 phases=3 conn=wye kv=49.0 kw=750.000 pf=0.92
new load.UC_9041_BSBRJ003_ATV bus1=BAR_S01__613.1.2.3 phases=3 conn=wye kv=49.0 kw=69.000 pf=0.92
new load.UC_9041_BSBRJ003_ATV bus1=BAR_S01__613.1.2.3 phases=3 conn=wye kv=49.0 kw=30.000 pf=0.92
new load.UC_9041_BSBRJ003_ATV bus1=BAR_S01__613.1.2.3 phases=3 conn=wye kv=49.0 kw=494.000 pf=0.92
new load.UC_9041_BSBRJ003_ATV bus1=BAR_S01__613.1.2.3 phases=3 conn=wye kv=49.0 kw=375.000 pf=0.92
new load.UC_9234_BSB140 bus1=BAR_S01__613.1.2.3 phases=3 conn=wye kv=49.0 kw=30.000 pf=0.92
new load.UC_9271_BSB137 bus1=BAR_S01__613.1.2.3 phases=3 conn=wye kv=49.0 kw=30.000 pf=0.92
new load.UC_9041_BSBRJ003_ATV bus1=BAR_S01__613.1.2.3 phases=3 conn=wye kv=49.0 kw=5000.000 pf=0.92
new load.UC_9041_BSBRJ003_ATV bus1=BAR_S01__613.1.2.3 phases=3 conn=wye kv=49.0 kw=990.000 pf=0.92
new load.UC_9041_BSBRJ003_ATV bus1=BAR_S01__613.1.2.3 phases=3 conn=wye kv=49.0 kw=500.000 pf=0.92
new load.UC_9041_BSBRJ003_ATV bus1=BAR_S01__613.1.2.3 phases=3 conn=wye kv=49.0 kw=875.000 pf=0.92
new load.UC_9041_BSBRJ003_ATV bus1=BAR_S01__613.1.2.3 phases=3 conn=wye kv=49.0 kw=540.000 pf=0.92
new load.UC_9041_BSBRJ003_ATV bus1=BAR_S01__613.1.2.3 phases=3 conn=wye kv=49.0 kw=30.000 pf=0.92
new load.UC_9041_BSBRJ003_ATV bus1=BAR_S01__613.1.2.3 phases=3 conn=wye kv=49.0 kw=1500.000 pf=0.92
new load.UC_9041_BSBRJ003_ATV bus1=BAR_S01__613.1.2.3 phases=3 conn=wye kv=49.0 kw=1000.000 pf=0.92
new load.UC_9041_BSBRJ003_ATV bus1=BAR_S01__613.1.2.3 phases=3 conn=wye kv=49.0 kw=1000.000 pf=0.92
new load.UC_9041_BSBRJ003_ATV bus1=BAR_S01__613.1.2.3 phases=3 conn=wye kv=49.0 kw=750.000 pf=0.92
new load.UC_9041_BSBRJ003_ATV bus1=BAR_S01__613.1.2.3 phases=3 conn=wye kv=49.0 kw=150.000 pf=0.92
new load.UC_9041_BSBRJ003_ATV bus1=BAR_S01__613.1.2.3 phases=3 conn=wye kv=49.0 kw=177.000 pf=0.92
new load.UC_9302_BSB138 bus1=BAR_S01__613.1.2.3 phases=3 conn=wye kv=49.0 kw=5.300 pf=0.92
new load.UC_9096_BSB139 bus1=BAR_S01__613.1.2.3 phases=3 conn=wye kv=49.0 kw=100.000 pf=0.92
new load.UC_9041_BSBRJ003_ATV bus1=BAR_S01__613.1.2.3 phases=3 conn=wye kv=49.0 kw=150.000 pf=0.92
new load.UC_9041_BSBRJ003_ATV bus1=BAR_S01__613.1.2.3 phases=3 conn=wye kv=49.0 kw=160.000 pf=0.92
new load.UC_9041_BSBRJ003_ATV bus1=BAR_S01__613.1.2.3 phases=3 conn=wye kv=49.0 kw=30.000 pf=0.92
new load.UC_9041_BSBRJ003_ATV bus1=BAR_S01__613.1.2.3 phases=3 conn=wye kv=49.0 kw=100.000 pf=0.92
new load.UC_9041_BSBRJ003_ATV bus1=BAR_S01__613.1.2.3 phases=3 conn=wye kv=49.0 kw=50.000 pf=0.92
new load.UC_9041_BSBRJ003_ATV bus1=BAR_S01__613.1.2.3 phases=3 conn=wye kv=49.0 kw=75.000 pf=0.92
new load.UC_9041_BSBRJ003_ATV bus1=BAR_S01__613.1.2.3 phases=3 conn=wye kv=49.0 kw=115.000 pf=0.92
new load.UC_9041_BSBRJ003_ATV bus1=BAR_S01__613.1.2.3 phases=3 conn=wye kv=49.0 kw=100.000 pf=0.92
new load.UC_9041_BSBRJ003_ATV bus1=BAR_S01__613.1.2.3 phases=3 conn=wye kv=49.0 kw=300.000 pf=0.92
new load.UC_9041_BSBRJ003_ATV bus1=BAR_S01__613.1.2.3 phases=3 conn=wye kv=49.0 kw=50.000 pf=0.92
new load.UC_9041_BSBRJ003_ATV bus1=BAR_S01__613.1.2.3 phases=3 conn=wye kv=49.0 kw=30.000 pf=0.92
new load.UC_9041_BSBRJ003_ATV bus1=BAR_S01__613.1.2.3 phases=3 conn=wye kv=49.0 kw=70.000 pf=0.92
new load.UC_9041_BSBRJ003_ATV bus1=BAR_S01__613.1.2.3 phases=3 conn=wye kv=49.0 kw=150.000 pf=0.92
new load.UC_9041_BSBRJ003_ATV bus1=BAR_S01__613.1.2.3 phases=3 conn=wye kv=49.0 kw=200.000 pf=0.92
new load.UC_9041_BSBRJ003_ATV bus1=BAR_S01__613.1.2.3 phases=3 conn=wye kv=49.0 kw=100.000 pf=0.92
new load.UC_9041_BSBRJ003_ATV bus1=BAR_S01__613.1.2.3 phases=3 conn=wye kv=49.0 kw=170.000 pf=0.92
new load.UC_9041_BSBRJ003_ATV bus1=BAR_S01__613.1.2.3 phases=3 conn=wye kv=49.0 kw=30.000 pf=0.92
new load.UC_9041_BSBRJ003_ATV bus1=BAR_S01__613.1.2.3 phases=3 conn=wye kv=49.0 kw=200.000 pf=0.92
new load.UC_9041_BSBRJ003_ATV bus1=BAR_S01__613.1.2.3 phases=3 conn=wye kv=49.0 kw=150.000 pf=0.92
new load.UC_9041_BSBRJ003_ATV bus1=BAR_S01__613.1.2.3 phases=3 conn=wye kv=49.0 kw=70.000 pf=0.92
new load.UC_9041_BSBRJ003_ATV bus1=BAR_S01__613.1.2.3 phases=3 conn=wye kv=49.0 kw=30.000 pf=0.92
new load.UC_9041_BSBRJ003_ATV bus1=BAR_S01__613.1.2.3 phases=3 conn=wye kv=49.0 kw=90.000 pf=0.92
new load.UC_9041_BSBRJ003_ATV bus1=BAR_S01__613.1.2.3 phases=3 conn=wye kv=49.0 kw=50.000 pf=0.92
new load.UC_9041_BSBRJ003_ATV bus1=BAR_S01__613.1.2.3 phases=3 conn=wye kv=49.0 kw=450.000 pf=0.92
new load.UC_9041_BSBRJ003_ATV bus1=BAR_S01__613.1.2.3 phases=3 conn=wye kv=49.0 kw=230.000 pf=0.92
new load.UC_9041_BSBRJ003_ATV bus1=BAR_S01__613.1.2.3 phases=3 conn=wye kv=49.0 kw=60.000 pf=0.92
new load.UC_9041_BSBRJ003_ATV bus1=BAR_S01__613.1.2.3 phases=3 conn=wye kv=49.0 kw=100.000 pf=0.92
new load.UC_9041_BSBRJ003_ATV bus1=BAR_S01__613.1.2.3 phases=3 conn=wye kv=49.0 kw=288.000 pf=0.92
new load.UC_9041_BSBRJ003_ATV bus1=BAR_S01__613.1.2.3 phases=3 conn=wye kv=49.0 kw=30.000 pf=0.92
new load.UC_9041_BSBRJ003_ATV bus1=BAR_S01__613.1.2.3 phases=3 conn=wye kv=49.0 kw=150.000 pf=0.92
new load.UC_9041_BSBRJ003_ATV bus1=BAR_S01__613.1.2.3 phases=3 conn=wye kv=49.0 kw=30.000 pf=0.92
new load.UC_9041_BSBRJ003_ATV bus1=BAR_S01__613.1.2.3 phases=3 conn=wye kv=49.0 kw=287.000 pf=0.92
new load.UC_9041_BSBRJ003_ATV bus1=BAR_S01__613.1.2.3 phases=3 conn=wye kv=49.0 kw=80.000 pf=0.92
new load.UC_9041_BSBRJ003_ATV bus1=BAR_S01__613.1.2.3 phases=3 conn=wye kv=49.0 kw=240.000 pf=0.92
new load.UC_9041_BSBRJ003_ATV bus1=BAR_S01__613.1.2.3 phases=3 conn=wye kv=49.0 kw=30.000 pf=0.92
new load.UC_9043_BSBRJ009_ATV bus1=BAR_S01__613.1.2.3 phases=3 conn=wye kv=49.0 kw=3.900 pf=0.92
new load.UC_9041_BSBRJ003_ATV bus1=BAR_S01__613.1.2.3 phases=3 conn=wye kv=49.0 kw=30.000 pf=0.92
new load.UC_9041_BSBRJ003_ATV bus1=BAR_S01__613.1.2.3 phases=3 conn=wye kv=49.0 kw=50.000 pf=0.92
new load.UC_9041_BSBRJ003_ATV bus1=BAR_S01__613.1.2.3 phases=3 conn=wye kv=49.0 kw=600.000 pf=0.92
new load.UC_9041_BSBRJ003_ATV bus1=BAR_S01__613.1.2.3 phases=3 conn=wye kv=49.0 kw=50.000 pf=0.92
new load.UC_9041_BSBRJ003_ATV bus1=BAR_S01__613.1.2.3 phases=3 conn=wye kv=49.0 kw=30.000 pf=0.92
new load.UC_9041_BSBRJ003_ATV bus1=BAR_S01__613.1.2.3 phases=3 conn=wye kv=49.0 kw=200.000 pf=0.92
new load.UC_9041_BSBRJ003_ATV bus1=BAR_S01__613.1.2.3 phases=3 conn=wye kv=49.0 kw=80.000 pf=0.92
new load.UC_9041_BSBRJ003_ATV bus1=BAR_S01__613.1.2.3 phases=3 conn=wye kv=49.0 kw=600.000 pf=0.92
new load.UC_9041_BSBRJ003_ATV bus1=BAR_S01__613.1.2.3 phases=3 conn=wye kv=49.0 kw=1050.000 pf=0.92
new load.UC_9041_BSBRJ003_ATV bus1=BAR_S01__613.1.2.3 phases=3 conn=wye kv=49.0 kw=600.000 pf=0.92
new load.UC_9041_BSBRJ003_ATV bus1=BAR_S01__613.1.2.3 phases=3 conn=wye kv=49.0 kw=1000.000 pf=0.92
new load.UC_9041_BSBRJ003_ATV bus1=BAR_S01__613.1.2.3 phases=3 conn=wye kv=49.0 kw=120.000 pf=0.92
new load.UC_9041_BSBRJ003_ATV bus1=BAR_S01__613.1.2.3 phases=3 conn=wye kv=49.0 kw=236.000 pf=0.92
new load.UC_9041_BSBRJ003_ATV bus1=BAR_S01__613.1.2.3 phases=3 conn=wye kv=49.0 kw=30.000 pf=0.92
new load.UC_9041_BSBRJ003_ATV bus1=BAR_S01__613.1.2.3 phases=3 conn=wye kv=49.0 kw=1000.000 pf=0.92
new load.UC_9041_BSBRJ003_ATV bus1=BAR_S01__613.1.2.3 phases=3 conn=wye kv=49.0 kw=160.000 pf=0.92
new load.UC_9041_BSBRJ003_ATV bus1=BAR_S01__613.1.2.3 phases=3 conn=wye kv=49.0 kw=30.000 pf=0.92
new load.UC_9041_BSBRJ003_ATV bus1=BAR_S01__613.1.2.3 phases=3 conn=wye kv=49.0 kw=110.000 pf=0.92
new load.UC_9041_BSBRJ003_ATV bus1=BAR_S01__613.1.2.3 phases=3 conn=wye kv=49.0 kw=30.000 pf=0.92
set maxiterations=50
solve